ieee123/ieee123_1_elem_kVA.txt

  Bus   (node ref)  Node       V (kV)    Angle    p.u.   Base kV

1 .......... 1       2.4018 /_    0.0         1     4.160        1-2       4.16 /_   30.0         1
   -         2       2.4018 /_ -120.0         1     4.160        2-3       4.16 /_  -90.0         1
   -         3       2.4018 /_  120.0         1     4.160        3-1       4.16 /_  150.0         1

CIRCUIT ELEMENT CURRENTS

(Currents into element from indicated bus)

Power Delivery Elements

  Bus         Phase    Magnitude, A     Angle      (Real)   +j  (Imag)

ELEMENT = "Line.L115"
149              1         0.019078 /_   90.3 =  -8.9749E-005 +j  0.019078
149              2         0.016504 /_  -30.2 =   0.014266 +j -0.0082979
149              3         0.018417 /_ -150.1 =  -0.015968 +j -0.0091755
149          Resid         0.002405 /_  -41.8 =   0.0017918 +j -0.0016043
------------
1                1         0.017815 /_  -90.3 =  -8.8891E-005 +j -0.017815
1                2         0.015143 /_  150.2 =   -0.01314 +j 0.0075264
1                3         0.017265 /_   30.1 =   0.014934 +j 0.0086634
1            Resid        0.0023553 /_  136.4 =   -0.0017051 +j 0.0016248


ELEMENT = "Line.L1"
1                2       0.00028075 /_  -30.0 =  0.00024313 +j -0.00014037
------------
2                2         7.9E-005 /_  -30.0 =  6.8416E-005 +j -3.9499E-005


ELEMENT = "Line.L2"
1                3       0.00096308 /_ -150.0 =  -0.00083406 +j -0.00048154
------------
3                3       0.00044916 /_   30.0 =  0.00038898 +j 0.00022458


ELEMENT = "Line.L3"
1                1         0.018718 /_   90.2 =  -6.742E-005 +j  0.018718
1                2          0.01593 /_  -30.1 =   0.013776 +j -0.0079997
1                3         0.017264 /_ -150.1 =  -0.014965 +j -0.0086071
1            Resid         0.002457 /_  -59.2 =   0.0012568 +j -0.0021112
------------
7                1         0.017771 /_  -90.2 =  -6.6559E-005 +j -0.017771
7                2          0.01491 /_  150.1 =  -0.012932 +j 0.0074211
7                3           0.0164 /_   30.1 =    0.01419 +j 0.0082231
7            Resid        0.0024378 /_  119.3 =   -0.0011918 +j 0.0021266


= = = = = = = = = = = = = = = = = = =  = = = = = = = = = = =  = =

Power Conversion Elements

  Bus         Phase    Magnitude, A     Angle      (Real)   +j  (Imag)

ELEMENT = "Load.S1A"
1                1            18.62 /_  -26.6 =     16.654 +j   -8.3272
1                0            18.62 /_  153.4 =    -16.654 +j    8.3272



CIRCUIT ELEMENT POWER FLOW

(Power Flow into element from indicated Bus)

  Bus       Phase     kW     +j   kvar           kVA           PF

ELEMENT = "Line.L115"        
1               1 -0.00021349 +j   0.042787      0.042787     -0.0050
1               2 0.00012508 +j    0.03637       0.03637      0.0034
1               3 8.549E-005 +j   0.041467      0.041467      0.0021
 TERMINAL TOTAL   -2.9128E-006 +j    0.12062       0.12062      0.0000
------------
ELEMENT = "Line.L115"        
149             1 -0.00021556 +j   -0.04582      0.045821      0.0047
149             2  0.0001275 +j  -0.039639      0.039639     -0.0032
149             3 9.0991E-005 +j  -0.044233      0.044233     -0.0021
 TERMINAL TOTAL   2.9339E-006 +j   -0.12969       0.12969      0.0000
ELEMENT = "Line.L1"          
1               2 2.003E-009 +j -0.00067429    0.00067429      0.0000
 TERMINAL TOTAL   2.003E-009 +j -0.00067429    0.00067429      0.0000
------------
ELEMENT = "Line.L1"          
2               2 -2.0076E-009 +j -0.00018974    0.00018974      0.0000
 TERMINAL TOTAL   -2.0076E-009 +j -0.00018974    0.00018974      0.0000
ELEMENT = "Line.L2"          
1               3 1.0037E-008 +j -0.0023131     0.0023131      0.0000
 TERMINAL TOTAL   1.0037E-008 +j -0.0023131     0.0023131      0.0000
------------
ELEMENT = "Line.L2"          
3               3 -1.0004E-008 +j  0.0010788     0.0010788      0.0000
 TERMINAL TOTAL   -1.0004E-008 +j  0.0010788     0.0010788      0.0000
ELEMENT = "Line.L3"          
1               1 -0.00016194 +j  -0.044957      0.044957      0.0036
1               2 9.5921E-005 +j  -0.038261      0.038261     -0.0025
1               3 6.8914E-005 +j  -0.041464      0.041464     -0.0017
 TERMINAL TOTAL   2.8967E-006 +j   -0.12468       0.12468      0.0000
------------
ELEMENT = "Line.L3"          
7               1 -0.00015984 +j   0.042682      0.042682     -0.0037
7               2 9.3516E-005 +j    0.03581       0.03581      0.0026
7               3 6.3446E-005 +j    0.03939       0.03939      0.0016
 TERMINAL TOTAL   -2.8818E-006 +j    0.11788       0.11788      0.0000
= = = = = = = = = = = = = = = = = = =  = = = = = = = = = = =  = =

Power Conversion Elements

  Bus         Phase     kW   +j  kvar         kVA         PF

ELEMENT = "Load.S1A"         
1               1         40 +j         20        44.721      0.8944
1               0          0 +j          0             0      1.0000
 TERMINAL TOTAL           40 +j         20        44.721      0.8944

